RCLONE_DIR="${MODPATH:-/data/adb/modules/rclone}"
RCLONE_PROP="${RCLONE_DIR}/module.prop"
RCLONE_WEB_PID="$TMPDIR/rclone_web.pid"

RCLONE_CONFIG="${RCLONE_DIR}/rclone.config"
RCLONE_CACHE_DIR="${TMPDIR:-/data/adb/modules/rclone/.cache}/rclone"

source ${RCLONE_DIR}/env.user || true
