MODULE_DIR="${MODPATH:-/data/adb/modules/rclone}"
MODULE_PROP="${MODULE_DIR}/module.prop"
RCLONE_WEB_PID="$TMPDIR/rclone_web.pid"

RCLONE_CONFIG_DIR="${MODULE_DIR}/conf"
RCLONE_CONFIG="${RCLONE_CONFIG_DIR}/rclone.conf"
RCLONE_CACHE_DIR="${TMPDIR:-/data/adb/modules/rclone/.cache}/rclone"

RCLONE_ALLOW_OTHER=true
RCLONE_BUFFER_SIZE=32M
RCLONE_DIR_CACHE_TIME=10m
RCLONE_VFS_CACHE_MAX_AGE=12h
RCLONE_VFS_CACHE_MAX_SIZE=1024M
RCLONE_VFS_READ_CHUNK_SIZE=64M
RCLONE_VFS_READ_CHUNK_SIZE_LIMIT=2G
RCLONE_VFS_CACHE_MODE=full
RCLONE_ATTR_TIMEOUT=3s
RCLONE_RC_ADDR=":5572"
RCLONE_RC_NO_AUTH=true
RCLONE_GID=1015

[ -f "${RCLONE_CONFIG_DIR}/env" ] && . "${RCLONE_CONFIG_DIR}/env"

# for more info https://rclone.org/docs/#environment-variables
