RCLONE_DIR="${MODPATH:-/data/adb/modules/rclone}"
RCLONE_CONFIG="${RCLONE_DIR}/rclone.config"
RCLONE_CACHE_DIR="${RCLONE_DIR}/cache"
